Proj Title=precip_modelCurrent Plan=p05Default Exp/Contr=0.3,0.1English UnitsGeom File=g01Geom File=g03Geom File=g04Geom File=g05Geom File=g02Geom File=g09Geom File=g08Geom File=g11Geom File=g12Geom File=g13Geom File=g14Unsteady File=u01Unsteady File=u02Unsteady File=u03Unsteady File=u04Unsteady File=u05Background Map Layer=DAsPlan File=p01
Plan File=p02
Plan File=p03
Background Map Layer=culsBackground Map Layer=byhand2Background Map Layer=CulvertCenterlineBackground Map Layer=culverts 1dBackground Map Layer=SurveyPts_prjBackground Map Layer=TankAreasBackground Map Layer=DAsY Axis Title=ElevationX Axis Title(PF)=Main Channel DistanceX Axis Title(XS)=StationBEGIN DESCRIPTION:END DESCRIPTION:DSS Start Date=01JAN2020DSS Start Time=00:00DSS End Date=01JAN2020DSS End Time=24:00DSS File=dssDSS Export Filename=DSS Export Rating Curves= 0 DSS Export Rating Curve Sorted= 0 DSS Export Volume Flow Curves= 0 DXF Filename=DXF OffsetX= 0 DXF OffsetY= 0 DXF ScaleX= 1 DXF ScaleY= 10 GIS Export Profiles= 0 